Version 4
SHEET 1 880 680
WIRE 176 80 96 80
WIRE 240 80 176 80
WIRE 96 112 96 80
WIRE 240 128 240 80
FLAG 96 192 0
FLAG 240 192 0
FLAG 176 80 Diodo
SYMBOL diode 224 128 R0
SYMATTR InstName D1
SYMATTR Value DI_1N4001
SYMBOL voltage 96 96 R0
SYMATTR InstName V1
SYMATTR Value 0
TEXT 48 256 Left 2 !.dc V1 0 875m 5m
TEXT 48 32 Left 0 !.MODEL DI_1N4001 D  ( IS=76.9p RS=42.0m BV=50.0 IBV=5.00u\n+ CJO=39.8p  M=0.333 N=1.45 TT=4.32u )
